19
Energy:      -1.2963865
C         -3.10801        1.54119       -0.01611
C         -1.98911        0.51172       -0.00651
H         -3.03107        2.21469        0.84346
H         -4.08177        1.04347        0.02813
H         -3.07614        2.14423       -0.92919
C         -0.61452        1.17987       -0.00730
H         -2.09119       -0.13997       -0.88185
H         -2.09142       -0.12093        0.88305
C          0.50986        0.14459       -0.04847
H         -0.51212        1.80130        0.89074
H         -0.52732        1.84741       -0.87328
C          1.87735        0.80789        0.07828
H          0.45643       -0.42368       -0.98560
H          0.37858       -0.58071        0.76438
C          2.97498       -0.21783       -0.02622
H          1.97083        1.29789        1.05305
H          2.02072        1.55694       -0.70755
O          4.04790        0.00292       -0.57907
H          2.80834       -1.16461        0.51586
